LAMMPS (15 Sep 2022)
# 3d WCA system, random initial configuration

variable density equal 1.1
variable initial_temperature equal 3.0
variable final_temperature equal 0.1
variable dt equal 0.01
variable tau equal 100*0.01
variable thermo_time equal 50000*0.01
variable equil_steps equal 50000
variable run_steps equal 100000

units lj
atom_style atomic
dimension 3

lattice fcc 0.8442
Lattice spacing in x,y,z = 1.6795962 1.6795962 1.6795962
region box block 0 8 0 8 0 8
create_box 1 box
Created orthogonal box = (0 0 0) to (13.43677 13.43677 13.43677)
create_atoms 1 box
Created 2048 atoms
mass 1 1.0

velocity all create 3 12345

pair_style lj/cut 1.0
pair_coeff 1 1 10.0 0.89089871814 1.0
pair_modify shift yes

timestep 0.01
thermo 500

fix 1 all nvt temp 3 3 1
run 50000
Generated 0 of 0 mixed pair_coeff terms from geometric mixing rule
Step          Temp          E_pair         E_mol          TotEng         Press
0   3              0              0              4.4978027      2.5313634
Averages over the last 51 of 101 rows, steps 25000 to 50000:
Temp E_pair E_mol TotEng Press
2.99226 1.10887 0 5.59507 14.3696
Loop time of 5.5603 on 6 procs for 50000 steps with 2048 atoms

unfix 1
dump 1 all atom 100000 3dWCA_T0.1_d1.1_N100000.lammpstrj
dump 2 all dcd 50000 3dWCA_T0.1_d1.1_N100000.dcd
log log.3d
